Circuit: * C:\Users\toshe\OneDrive\Documents\University\3rd Year\Semester 2\EDesign\E344\Assignment3\E344_A3_heart.asc

Direct Newton iteration failed to find .op point.  (Use ".option noopiter" to skip.)
Starting Gmin stepping
Gmin = 10
Gmin = 1.07374
Gmin = 0.115292
Gmin = 0.0123794
Gmin = 0.00132923
vernier = 0.5
vernier = 0.25
vernier = 0.125
vernier = 0.0625
Gmin = 0.00100083
vernier = 0.03125
vernier = 0.015625
vernier = 0.0078125
vernier = 0.00390625
vernier = 0.00195313
Gmin = 0.00100083
vernier = 0.000976563
vernier = 0.000488281
Gmin = 0
Gmin stepping failed

Starting source stepping with srcstepmethod=0
Source Step = 3.0303%
vernier = 0.25
Source Step = 1.70455%
Source Step = 3.59848%
Source Step = 5.49242%
Source Step = 7.38636%
Source Step = 9.2803%
vernier = 0.09375
Source Step = 11.9318%
Source Step = 14.7727%
Source Step = 17.6136%
Source Step = 20.4545%
Source Step = 23.2955%
vernier = 0.140625
Source Step = 27.1307%
Source Step = 31.392%
Source Step = 35.6534%
Source Step = 39.9148%
Source Step = 44.1761%
vernier = 0.0351563
Source Step = 43.8033%
Source Step = 43.8699%
Source Step = 43.9364%
Source Step = 44.003%
Source Step = 44.0696%
vernier = 0.0032959
Source Step = 44.1528%
Source Step = 44.2527%
Source Step = 44.3526%
Source Step = 44.4525%
Source Step = 44.5523%
vernier = 0.00494385
Source Step = 44.6722%
Source Step = 44.822%
Source Step = 44.9718%
Source Step = 45.1216%
Source Step = 45.2714%
vernier = 0.00741577
Source Step = 45.4437%
Source Step = 45.6684%
Source Step = 45.8932%
Source Step = 46.1179%
Source Step = 46.3426%
vernier = 0.0111237
Source Step = 46.5898%
Source Step = 46.9269%
Source Step = 47.264%
Source Step = 47.601%
Source Step = 47.9381%
vernier = 0.0166855
Source Step = 48.2921%
Source Step = 48.7977%
Source Step = 49.3033%
Source Step = 49.8089%
Source Step = 50.3145%
Source Step = 50.8202%
vernier = 0.0250282
Source Step = 51.5786%
Source Step = 52.337%
Source Step = 52.6451%
Source Step = 52.6925%
Source Step = 52.7399%
Source Step = 52.7873%
Source Step = 52.8347%
Source Step = 52.8821%
vernier = 0.0023464
Source Step = 52.9438%
Source Step = 53.0149%
Source Step = 53.086%
Source Step = 53.1571%
Source Step = 53.2282%
vernier = 0.00351959
Source Step = 53.3171%
Source Step = 53.4237%
Source Step = 53.5304%
Source Step = 53.637%
Source Step = 53.7437%
vernier = 0.00527939
Source Step = 53.8717%
Source Step = 54.0316%
Source Step = 54.1916%
Source Step = 54.3516%
Source Step = 54.5116%
vernier = 0.00791909
Source Step = 54.6956%
Source Step = 54.9355%
Source Step = 55.1755%
Source Step = 55.4155%
Source Step = 55.6555%
vernier = 0.0118786
Source Step = 55.9194%
Source Step = 56.2794%
Source Step = 56.6393%
Source Step = 56.9993%
Source Step = 57.3593%
vernier = 0.0178179
Source Step = 57.7372%
Source Step = 58.2772%
Source Step = 58.8171%
Source Step = 59.357%
Source Step = 59.897%
Source Step = 60.4369%
vernier = 0.0267269
Source Step = 61.2468%
Source Step = 62.0567%
Source Step = 62.8666%
Source Step = 63.6765%
Source Step = 64.4864%
vernier = 0.0400904
Source Step = 65.6608%
Source Step = 66.8757%
Source Step = 68.0905%
Source Step = 69.3054%
Source Step = 70.5202%
vernier = 0.0601356
Source Step = 72.221%
Source Step = 74.0433%
Source Step = 75.8656%
Source Step = 77.6879%
Source Step = 79.5102%
vernier = 0.0902034
Source Step = 81.9703%
Source Step = 84.7037%
Source Step = 87.4372%
Source Step = 90.1706%
Source Step = 91.5459%
Source Step = 91.5886%
Source Step = 91.6313%
Source Step = 91.674%
Source Step = 91.7167%
Source Step = 91.7594%
Source Step = 91.8021%
Source Step = 91.8448%
Source Step = 91.8875%
Source Step = 91.9303%
Source Step = 91.973%
Source Step = 92.0157%
Source Step = 92.0584%
Source Step = 92.1011%
Source Step = 92.1438%
Source Step = 92.1865%
Source Step = 92.2292%
Source Step = 92.2719%
Source Step = 92.3146%
Source Step = 92.3574%
Source Step = 92.4001%
Source Step = 92.4428%
Source Step = 92.4855%
Source Step = 92.5282%
Source Step = 92.5709%
Source Step = 92.6136%
Source Step = 92.6563%
Source Step = 92.699%
Source Step = 92.7417%
Source Step = 92.7845%
Source Step = 92.8272%
Source Step = 92.8699%
Source Step = 92.9126%
Starting source stepping with srcstepmethod=1
Source Step = 3.0303%
vernier = 0.25
Source stepping failed

Pseudo transient terminated at 100.356 s, solution accepted ready or not!
Heightened Def Con from 0.481482 to 0.481482
Heightened Def Con from 0.691621 +to 0.691621
Heightened Def Con from 3.45358 to 3.45358
Heightened Def Con from 4.5163 to 4.5163
Heightened Def Con from 4.73877 to 4.73877
Heightened Def Con from 5.1679 +to 5.1679

Date: Thu Oct 15 01:37:30 2020
Total elapsed time: 26.687 seconds.

tnom = 27
temp = 27
method = modified trap
totiter = 122530
traniter = 84017
tranpoints = 33248
accept = 31533
rejected = 1896
matrix size = 169
fillins = 369
solver = Normal
Thread vector: 95.9/15.5[4] 18.5/10.0[4] 9.2/3.4[4] 2.3/35.4[1]  2592/500
Matrix Compiler1: 35.32 KB object code size  15.5/8.0/[3.6]
Matrix Compiler2: 20.78 KB object code size  43.6/21.4/[5.4]

