Circuit: * C:\Users\toshe\OneDrive\Documents\University\3rd Year\Semester 2\EDesign\E344\Assignment3\E344_A3_temp.asc

V1: Removing PWL point (0.001,1.32)
Direct Newton iteration failed to find .op point.  (Use ".option noopiter" to skip.)
Starting Gmin stepping
Gmin = 10
Gmin = 1.07374
Gmin = 0.115292
Gmin = 0.0123794
Gmin = 0.00132923
vernier = 0.5
vernier = 0.25
vernier = 0.125
vernier = 0.0625
Gmin = 0.00100083
vernier = 0.03125
vernier = 0.015625
vernier = 0.0078125
vernier = 0.00390625
vernier = 0.00195313
Gmin = 0.00100083
vernier = 0.000976563
vernier = 0.000488281
Gmin = 0
Gmin stepping failed

Starting source stepping with srcstepmethod=0
Source Step = 3.0303%
vernier = 0.25
Source Step = 1.70455%
Source Step = 3.59848%
Source Step = 5.49242%
Source Step = 7.38636%
Source Step = 9.2803%
vernier = 0.09375
Source Step = 11.9318%
Source Step = 14.7727%
Source Step = 17.6136%
Source Step = 20.4545%
Source Step = 23.2955%
vernier = 0.140625
Source Step = 27.1307%
Source Step = 31.392%
vernier = 0.0351563
Source Step = 31.0192%
Source Step = 31.0858%
Source Step = 31.1523%
Source Step = 31.2189%
Source Step = 31.2855%
vernier = 0.0032959
Source Step = 31.3687%
Source Step = 31.4686%
Source Step = 31.5685%
Source Step = 31.6684%
Source Step = 31.7682%
vernier = 0.00494385
Source Step = 31.8881%
Source Step = 32.0379%
Source Step = 32.1877%
Source Step = 32.3375%
Source Step = 32.4873%
vernier = 0.00741577
Source Step = 32.6596%
Source Step = 32.8844%
Source Step = 33.1091%
Source Step = 33.3338%
Source Step = 33.5585%
vernier = 0.0111237
Source Step = 33.8057%
Source Step = 34.1428%
Source Step = 34.4799%
Source Step = 34.817%
Source Step = 35.154%
vernier = 0.0166855
Source Step = 35.508%
Source Step = 36.0136%
Source Step = 36.5192%
Source Step = 37.0248%
Source Step = 37.5304%
Source Step = 38.0361%
vernier = 0.0250282
Source Step = 38.7945%
Source Step = 39.5529%
Source Step = 40.3114%
Source Step = 41.0698%
Source Step = 41.8282%
vernier = 0.0375423
Source Step = 42.928%
Source Step = 44.0656%
Source Step = 45.2032%
Source Step = 46.3409%
Source Step = 47.4785%
vernier = 0.0563135
Source Step = 49.0712%
Source Step = 50.7777%
Source Step = 52.4842%
Source Step = 54.1907%
Source Step = 55.8971%
vernier = 0.0844703
Source Step = 58.2009%
Source Step = 60.7606%
Source Step = 63.3203%
Source Step = 65.88%
Source Step = 68.4397%
vernier = 0.126705
Source Step = 71.7673%
Source Step = 72.1872%
Source Step = 72.2472%
Source Step = 72.3072%
Source Step = 72.3672%
Source Step = 72.4272%
vernier = 0.00296966
Source Step = 72.4932%
Source Step = 72.5832%
Source Step = 72.6732%
Source Step = 72.7632%
Source Step = 72.8532%
vernier = 0.00445449
Source Step = 72.9477%
Source Step = 73.0826%
Source Step = 73.2176%
Source Step = 73.3526%
Source Step = 73.4876%
Source Step = 73.6226%
vernier = 0.00668173
Source Step = 73.8251%
Source Step = 74.0275%
Source Step = 74.23%
Source Step = 74.4325%
Source Step = 74.635%
vernier = 0.0100226
Source Step = 74.9286%
Source Step = 75.2323%
Source Step = 75.536%
Source Step = 75.8397%
Source Step = 76.1434%
vernier = 0.0150339
Source Step = 76.5686%
Source Step = 77.0242%
Source Step = 77.4798%
Source Step = 77.9353%
Source Step = 78.3909%
vernier = 0.0225508
Source Step = 79.0059%
Source Step = 79.6893%
Source Step = 80.3726%
Source Step = 81.056%
Source Step = 81.7394%
vernier = 0.0338263
Source Step = 82.6277%
Source Step = 83.6528%
Source Step = 84.6778%
Source Step = 85.7028%
Source Step = 86.7279%
vernier = 0.0507394
Source Step = 88.0092%
Source Step = 89.5467%
Source Step = 91.0843%
Source Step = 91.1612%
Source Step = 91.2573%
Source Step = 91.3534%
Source Step = 91.4495%
Source Step = 91.5456%
Source Step = 91.6417%
Source Step = 91.7378%
Source Step = 91.8339%
Source Step = 91.93%
Source Step = 92.0261%
Source Step = 92.1221%
Source Step = 92.2182%
Source Step = 92.3143%
Source Step = 92.4104%
Source Step = 92.5065%
Source Step = 92.6026%
Source Step = 92.6987%
Source Step = 92.7948%
Source Step = 92.8909%
Source Step = 92.987%
Source Step = 93.0831%
Source Step = 93.1792%
Source Step = 93.2753%
Source Step = 93.3714%
Source Step = 93.4675%
Source Step = 93.5636%
Source Step = 93.6597%
Source Step = 93.7558%
Source Step = 93.8519%
Source Step = 93.948%
Source Step = 94.0441%
Source Step = 94.1402%
Source Step = 94.2363%
Source Step = 94.3324%
Source Step = 94.4285%
Source Step = 94.5246%
Source Step = 94.6207%
Source Step = 94.7168%
Source Step = 94.8129%
Source Step = 94.909%
Source Step = 95.0051%
Source Step = 95.1012%
Source Step = 95.1973%
Source Step = 95.2934%
Source Step = 95.3895%
Source Step = 95.4856%
Source Step = 95.5817%
Source Step = 95.6777%
Source Step = 95.7738%
Source Step = 95.8699%
Source Step = 95.966%
Source Step = 96.0621%
Source Step = 96.1582%
Source Step = 96.2543%
Source Step = 96.3504%
Source Step = 96.4465%
Source Step = 96.5426%
Source Step = 96.6387%
Source Step = 96.7348%
Source Step = 96.8309%
Source Step = 96.927%
Source Step = 97.0231%
Source Step = 97.1192%
Source Step = 97.2153%
Source Step = 97.3114%
Source Step = 97.4075%
Source Step = 97.5036%
Source Step = 97.5997%
Source Step = 97.6958%
Source Step = 97.7919%
Source Step = 97.888%
Source Step = 97.9841%
Starting source stepping with srcstepmethod=1
Source Step = 3.0303%
Source Step = 15.3527%
Source stepping failed

Pseudo transient terminated at 102.962 s, solution accepted ready or not!

Date: Thu Oct 15 01:27:03 2020
Total elapsed time: 31.124 seconds.

tnom = 27
temp = 27
method = modified trap
totiter = 85392
traniter = 12040
tranpoints = 6021
accept = 6021
rejected = 445
matrix size = 185
fillins = 489
solver = Normal
Thread vector: 26.4/20.8[4] 9.4/5.0[4] 13.9/5.2[4] 1.5/9.4[1]  2592/500
Matrix Compiler1: 43.38 KB object code size  12.7/14.8/[3.1]
Matrix Compiler2: 24.33 KB object code size  10.2/13.0/[3.5]

